<additional xmlns:xsi="http://www.w3.org/2001/XMLSchema-instance" xsi:noNamespaceSchemaLocation="http://sumo.dlr.de/xsd/additional_file.xsd">
    <e1Detector file="e1.output.xml" freq="60" friendlyPos="x" id="e1det--B--N1--N1_0--r" lane="N1_0" pos="298.0"/>
    <e1Detector file="e1.output.xml" freq="60" friendlyPos="x" id="e1det--B--N1--N1_1--s" lane="N1_1" pos="298.0"/>
    <e1Detector file="e1.output.xml" freq="60" friendlyPos="x" id="e1det--B--N1--N1_2--l" lane="N1_2" pos="298.0"/>
    <e1Detector file="e1.output.xml" freq="60" friendlyPos="x" id="e1det--B--N3--N3_0--r" lane="N3_0" pos="298.0"/>
    <e1Detector file="e1.output.xml" freq="60" friendlyPos="x" id="e1det--B--N3--N3_1--s" lane="N3_1" pos="298.0"/>
    <e1Detector file="e1.output.xml" freq="60" friendlyPos="x" id="e1det--B--N3--N3_2--l" lane="N3_2" pos="298.0"/>
    <e1Detector file="e1.output.xml" freq="60" friendlyPos="x" id="e1det--B--N5--N5_0--r" lane="N5_0" pos="298.0"/>
    <e1Detector file="e1.output.xml" freq="60" friendlyPos="x" id="e1det--B--N5--N5_1--s" lane="N5_1" pos="298.0"/>
    <e1Detector file="e1.output.xml" freq="60" friendlyPos="x" id="e1det--B--N5--N5_2--l" lane="N5_2" pos="298.0"/>
    <e1Detector file="e1.output.xml" freq="60" friendlyPos="x" id="e1det--B--N7--N7_0--r" lane="N7_0" pos="298.0"/>
    <e1Detector file="e1.output.xml" freq="60" friendlyPos="x" id="e1det--B--N7--N7_1--s" lane="N7_1" pos="298.0"/>
    <e1Detector file="e1.output.xml" freq="60" friendlyPos="x" id="e1det--B--N7--N7_2--l" lane="N7_2" pos="298.0"/>
    <e1Detector file="e1.output.xml" freq="60" friendlyPos="x" id="e1det--D--W1--W1_0--r" lane="W1_0" pos="298.0"/>
    <e1Detector file="e1.output.xml" freq="60" friendlyPos="x" id="e1det--D--W1--W1_1--s" lane="W1_1" pos="298.0"/>
    <e1Detector file="e1.output.xml" freq="60" friendlyPos="x" id="e1det--D--W1--W1_2--l" lane="W1_2" pos="298.0"/>
    <e1Detector file="e1.output.xml" freq="60" friendlyPos="x" id="e1det--D--W3--W3_0--r" lane="W3_0" pos="298.0"/>
    <e1Detector file="e1.output.xml" freq="60" friendlyPos="x" id="e1det--D--W3--W3_1--s" lane="W3_1" pos="298.0"/>
    <e1Detector file="e1.output.xml" freq="60" friendlyPos="x" id="e1det--D--W3--W3_2--l" lane="W3_2" pos="298.0"/>
    <e1Detector file="e1.output.xml" freq="60" friendlyPos="x" id="e1det--D--W5--W5_0--r" lane="W5_0" pos="298.0"/>
    <e1Detector file="e1.output.xml" freq="60" friendlyPos="x" id="e1det--D--W5--W5_1--s" lane="W5_1" pos="298.0"/>
    <e1Detector file="e1.output.xml" freq="60" friendlyPos="x" id="e1det--D--W5--W5_2--l" lane="W5_2" pos="298.0"/>
    <e1Detector file="e1.output.xml" freq="60" friendlyPos="x" id="e1det--D--W7--W7_0--r" lane="W7_0" pos="298.0"/>
    <e1Detector file="e1.output.xml" freq="60" friendlyPos="x" id="e1det--D--W7--W7_1--s" lane="W7_1" pos="298.0"/>
    <e1Detector file="e1.output.xml" freq="60" friendlyPos="x" id="e1det--D--W7--W7_2--l" lane="W7_2" pos="298.0"/>
    <e1Detector file="e1.output.xml" freq="60" friendlyPos="x" id="e1det--E--N6--N6_0--r" lane="N6_0" pos="298.0"/>
    <e1Detector file="e1.output.xml" freq="60" friendlyPos="x" id="e1det--E--N6--N6_1--s" lane="N6_1" pos="298.0"/>
    <e1Detector file="e1.output.xml" freq="60" friendlyPos="x" id="e1det--E--N6--N6_2--l" lane="N6_2" pos="298.0"/>
    <e1Detector file="e1.output.xml" freq="60" friendlyPos="x" id="e1det--E--E8--E8_0--r" lane="E8_0" pos="298.0"/>
    <e1Detector file="e1.output.xml" freq="60" friendlyPos="x" id="e1det--E--E8--E8_1--s" lane="E8_1" pos="298.0"/>
    <e1Detector file="e1.output.xml" freq="60" friendlyPos="x" id="e1det--E--E8--E8_2--l" lane="E8_2" pos="298.0"/>
    <e1Detector file="e1.output.xml" freq="60" friendlyPos="x" id="e1det--E--S2--S2_0--r" lane="S2_0" pos="298.0"/>
    <e1Detector file="e1.output.xml" freq="60" friendlyPos="x" id="e1det--E--S2--S2_1--s" lane="S2_1" pos="298.0"/>
    <e1Detector file="e1.output.xml" freq="60" friendlyPos="x" id="e1det--E--S2--S2_2--l" lane="S2_2" pos="298.0"/>
    <e1Detector file="e1.output.xml" freq="60" friendlyPos="x" id="e1det--E--W4--W4_0--r" lane="W4_0" pos="298.0"/>
    <e1Detector file="e1.output.xml" freq="60" friendlyPos="x" id="e1det--E--W4--W4_1--s" lane="W4_1" pos="298.0"/>
    <e1Detector file="e1.output.xml" freq="60" friendlyPos="x" id="e1det--E--W4--W4_2--l" lane="W4_2" pos="298.0"/>
    <e1Detector file="e1.output.xml" freq="60" friendlyPos="x" id="e1det--F--E1--E1_0--r" lane="E1_0" pos="298.0"/>
    <e1Detector file="e1.output.xml" freq="60" friendlyPos="x" id="e1det--F--E1--E1_1--s" lane="E1_1" pos="298.0"/>
    <e1Detector file="e1.output.xml" freq="60" friendlyPos="x" id="e1det--F--E1--E1_2--l" lane="E1_2" pos="298.0"/>
    <e1Detector file="e1.output.xml" freq="60" friendlyPos="x" id="e1det--F--E3--E3_0--r" lane="E3_0" pos="298.0"/>
    <e1Detector file="e1.output.xml" freq="60" friendlyPos="x" id="e1det--F--E3--E3_1--s" lane="E3_1" pos="298.0"/>
    <e1Detector file="e1.output.xml" freq="60" friendlyPos="x" id="e1det--F--E3--E3_2--l" lane="E3_2" pos="298.0"/>
    <e1Detector file="e1.output.xml" freq="60" friendlyPos="x" id="e1det--F--E5--E5_0--r" lane="E5_0" pos="298.0"/>
    <e1Detector file="e1.output.xml" freq="60" friendlyPos="x" id="e1det--F--E5--E5_1--s" lane="E5_1" pos="298.0"/>
    <e1Detector file="e1.output.xml" freq="60" friendlyPos="x" id="e1det--F--E5--E5_2--l" lane="E5_2" pos="298.0"/>
    <e1Detector file="e1.output.xml" freq="60" friendlyPos="x" id="e1det--F--E7--E7_0--r" lane="E7_0" pos="298.0"/>
    <e1Detector file="e1.output.xml" freq="60" friendlyPos="x" id="e1det--F--E7--E7_1--s" lane="E7_1" pos="298.0"/>
    <e1Detector file="e1.output.xml" freq="60" friendlyPos="x" id="e1det--F--E7--E7_2--l" lane="E7_2" pos="298.0"/>
    <e1Detector file="e1.output.xml" freq="60" friendlyPos="x" id="e1det--H--S1--S1_0--r" lane="S1_0" pos="298.0"/>
    <e1Detector file="e1.output.xml" freq="60" friendlyPos="x" id="e1det--H--S1--S1_1--s" lane="S1_1" pos="298.0"/>
    <e1Detector file="e1.output.xml" freq="60" friendlyPos="x" id="e1det--H--S1--S1_2--l" lane="S1_2" pos="298.0"/>
    <e1Detector file="e1.output.xml" freq="60" friendlyPos="x" id="e1det--H--S3--S3_0--r" lane="S3_0" pos="298.0"/>
    <e1Detector file="e1.output.xml" freq="60" friendlyPos="x" id="e1det--H--S3--S3_1--s" lane="S3_1" pos="298.0"/>
    <e1Detector file="e1.output.xml" freq="60" friendlyPos="x" id="e1det--H--S3--S3_2--l" lane="S3_2" pos="298.0"/>
    <e1Detector file="e1.output.xml" freq="60" friendlyPos="x" id="e1det--H--S5--S5_0--r" lane="S5_0" pos="298.0"/>
    <e1Detector file="e1.output.xml" freq="60" friendlyPos="x" id="e1det--H--S5--S5_1--s" lane="S5_1" pos="298.0"/>
    <e1Detector file="e1.output.xml" freq="60" friendlyPos="x" id="e1det--H--S5--S5_2--l" lane="S5_2" pos="298.0"/>
    <e1Detector file="e1.output.xml" freq="60" friendlyPos="x" id="e1det--H--S7--S7_0--r" lane="S7_0" pos="298.0"/>
    <e1Detector file="e1.output.xml" freq="60" friendlyPos="x" id="e1det--H--S7--S7_1--s" lane="S7_1" pos="298.0"/>
    <e1Detector file="e1.output.xml" freq="60" friendlyPos="x" id="e1det--H--S7--S7_2--l" lane="S7_2" pos="298.0"/>
</additional>
