<additional xmlns:xsi="http://www.w3.org/2001/XMLSchema-instance" xsi:noNamespaceSchemaLocation="http://sumo.dlr.de/xsd/additional_file.xsd">
    <e1Detector file="e1_internal.output.xml" freq="60" friendlyPos="x" id="e1det_internal--B--N1--N1_0--N8_0--r" lane=":B_0_0" pos="3"/>
    <e1Detector file="e1_internal.output.xml" freq="60" friendlyPos="x" id="e1det_internal--B--N1--N1_1--N6_1--s" lane=":B_1_0" pos="3"/>
    <e1Detector file="e1_internal.output.xml" freq="60" friendlyPos="x" id="e1det_internal--B--N1--N1_2--N4_2--l" lane=":B_2_0" pos="3"/>
    <e1Detector file="e1_internal.output.xml" freq="60" friendlyPos="x" id="e1det_internal--B--N3--N3_0--N2_0--r" lane=":B_3_0" pos="3"/>
    <e1Detector file="e1_internal.output.xml" freq="60" friendlyPos="x" id="e1det_internal--B--N3--N3_1--N8_1--s" lane=":B_4_0" pos="3"/>
    <e1Detector file="e1_internal.output.xml" freq="60" friendlyPos="x" id="e1det_internal--B--N3--N3_2--N6_2--l" lane=":B_5_0" pos="3"/>
    <e1Detector file="e1_internal.output.xml" freq="60" friendlyPos="x" id="e1det_internal--B--N5--N5_0--N4_0--r" lane=":B_6_0" pos="3"/>
    <e1Detector file="e1_internal.output.xml" freq="60" friendlyPos="x" id="e1det_internal--B--N5--N5_1--N2_1--s" lane=":B_7_0" pos="3"/>
    <e1Detector file="e1_internal.output.xml" freq="60" friendlyPos="x" id="e1det_internal--B--N5--N5_2--N8_2--l" lane=":B_8_0" pos="3"/>
    <e1Detector file="e1_internal.output.xml" freq="60" friendlyPos="x" id="e1det_internal--B--N7--N7_0--N6_0--r" lane=":B_9_0" pos="3"/>
    <e1Detector file="e1_internal.output.xml" freq="60" friendlyPos="x" id="e1det_internal--B--N7--N7_1--N4_1--s" lane=":B_10_0" pos="3"/>
    <e1Detector file="e1_internal.output.xml" freq="60" friendlyPos="x" id="e1det_internal--B--N7--N7_2--N2_2--l" lane=":B_11_0" pos="3"/>
    <e1Detector file="e1_internal.output.xml" freq="60" friendlyPos="x" id="e1det_internal--D--W1--W1_0--W8_0--r" lane=":D_0_0" pos="3"/>
    <e1Detector file="e1_internal.output.xml" freq="60" friendlyPos="x" id="e1det_internal--D--W1--W1_1--W6_1--s" lane=":D_1_0" pos="3"/>
    <e1Detector file="e1_internal.output.xml" freq="60" friendlyPos="x" id="e1det_internal--D--W1--W1_2--W4_2--l" lane=":D_2_0" pos="3"/>
    <e1Detector file="e1_internal.output.xml" freq="60" friendlyPos="x" id="e1det_internal--D--W3--W3_0--W2_0--r" lane=":D_3_0" pos="3"/>
    <e1Detector file="e1_internal.output.xml" freq="60" friendlyPos="x" id="e1det_internal--D--W3--W3_1--W8_1--s" lane=":D_4_0" pos="3"/>
    <e1Detector file="e1_internal.output.xml" freq="60" friendlyPos="x" id="e1det_internal--D--W3--W3_2--W6_2--l" lane=":D_5_0" pos="3"/>
    <e1Detector file="e1_internal.output.xml" freq="60" friendlyPos="x" id="e1det_internal--D--W5--W5_0--W4_0--r" lane=":D_6_0" pos="3"/>
    <e1Detector file="e1_internal.output.xml" freq="60" friendlyPos="x" id="e1det_internal--D--W5--W5_1--W2_1--s" lane=":D_7_0" pos="3"/>
    <e1Detector file="e1_internal.output.xml" freq="60" friendlyPos="x" id="e1det_internal--D--W5--W5_2--W8_2--l" lane=":D_8_0" pos="3"/>
    <e1Detector file="e1_internal.output.xml" freq="60" friendlyPos="x" id="e1det_internal--D--W7--W7_0--W6_0--r" lane=":D_9_0" pos="3"/>
    <e1Detector file="e1_internal.output.xml" freq="60" friendlyPos="x" id="e1det_internal--D--W7--W7_1--W4_1--s" lane=":D_10_0" pos="3"/>
    <e1Detector file="e1_internal.output.xml" freq="60" friendlyPos="x" id="e1det_internal--D--W7--W7_2--W2_2--l" lane=":D_11_0" pos="3"/>
    <e1Detector file="e1_internal.output.xml" freq="60" friendlyPos="x" id="e1det_internal--E--N6--N6_0--W3_0--r" lane=":E_0_0" pos="3"/>
    <e1Detector file="e1_internal.output.xml" freq="60" friendlyPos="x" id="e1det_internal--E--N6--N6_1--S1_1--s" lane=":E_1_0" pos="3"/>
    <e1Detector file="e1_internal.output.xml" freq="60" friendlyPos="x" id="e1det_internal--E--N6--N6_2--E7_2--l" lane=":E_2_0" pos="3"/>
    <e1Detector file="e1_internal.output.xml" freq="60" friendlyPos="x" id="e1det_internal--E--E8--E8_0--N5_0--r" lane=":E_3_0" pos="3"/>
    <e1Detector file="e1_internal.output.xml" freq="60" friendlyPos="x" id="e1det_internal--E--E8--E8_1--W3_1--s" lane=":E_4_0" pos="3"/>
    <e1Detector file="e1_internal.output.xml" freq="60" friendlyPos="x" id="e1det_internal--E--E8--E8_2--S1_2--l" lane=":E_5_0" pos="3"/>
    <e1Detector file="e1_internal.output.xml" freq="60" friendlyPos="x" id="e1det_internal--E--S2--S2_0--E7_0--r" lane=":E_6_0" pos="3"/>
    <e1Detector file="e1_internal.output.xml" freq="60" friendlyPos="x" id="e1det_internal--E--S2--S2_1--N5_1--s" lane=":E_7_0" pos="3"/>
    <e1Detector file="e1_internal.output.xml" freq="60" friendlyPos="x" id="e1det_internal--E--S2--S2_2--W3_2--l" lane=":E_8_0" pos="3"/>
    <e1Detector file="e1_internal.output.xml" freq="60" friendlyPos="x" id="e1det_internal--E--W4--W4_0--S1_0--r" lane=":E_9_0" pos="3"/>
    <e1Detector file="e1_internal.output.xml" freq="60" friendlyPos="x" id="e1det_internal--E--W4--W4_1--E7_1--s" lane=":E_10_0" pos="3"/>
    <e1Detector file="e1_internal.output.xml" freq="60" friendlyPos="x" id="e1det_internal--E--W4--W4_2--N5_2--l" lane=":E_11_0" pos="3"/>
    <e1Detector file="e1_internal.output.xml" freq="60" friendlyPos="x" id="e1det_internal--F--E1--E1_0--E8_0--r" lane=":F_0_0" pos="3"/>
    <e1Detector file="e1_internal.output.xml" freq="60" friendlyPos="x" id="e1det_internal--F--E1--E1_1--E6_1--s" lane=":F_1_0" pos="3"/>
    <e1Detector file="e1_internal.output.xml" freq="60" friendlyPos="x" id="e1det_internal--F--E1--E1_2--E4_2--l" lane=":F_2_0" pos="3"/>
    <e1Detector file="e1_internal.output.xml" freq="60" friendlyPos="x" id="e1det_internal--F--E3--E3_0--E2_0--r" lane=":F_3_0" pos="3"/>
    <e1Detector file="e1_internal.output.xml" freq="60" friendlyPos="x" id="e1det_internal--F--E3--E3_1--E8_1--s" lane=":F_4_0" pos="3"/>
    <e1Detector file="e1_internal.output.xml" freq="60" friendlyPos="x" id="e1det_internal--F--E3--E3_2--E6_2--l" lane=":F_5_0" pos="3"/>
    <e1Detector file="e1_internal.output.xml" freq="60" friendlyPos="x" id="e1det_internal--F--E5--E5_0--E4_0--r" lane=":F_6_0" pos="3"/>
    <e1Detector file="e1_internal.output.xml" freq="60" friendlyPos="x" id="e1det_internal--F--E5--E5_1--E2_1--s" lane=":F_7_0" pos="3"/>
    <e1Detector file="e1_internal.output.xml" freq="60" friendlyPos="x" id="e1det_internal--F--E5--E5_2--E8_2--l" lane=":F_8_0" pos="3"/>
    <e1Detector file="e1_internal.output.xml" freq="60" friendlyPos="x" id="e1det_internal--F--E7--E7_0--E6_0--r" lane=":F_9_0" pos="3"/>
    <e1Detector file="e1_internal.output.xml" freq="60" friendlyPos="x" id="e1det_internal--F--E7--E7_1--E4_1--s" lane=":F_10_0" pos="3"/>
    <e1Detector file="e1_internal.output.xml" freq="60" friendlyPos="x" id="e1det_internal--F--E7--E7_2--E2_2--l" lane=":F_11_0" pos="3"/>
    <e1Detector file="e1_internal.output.xml" freq="60" friendlyPos="x" id="e1det_internal--H--S1--S1_0--S8_0--r" lane=":H_0_0" pos="3"/>
    <e1Detector file="e1_internal.output.xml" freq="60" friendlyPos="x" id="e1det_internal--H--S1--S1_1--S6_1--s" lane=":H_1_0" pos="3"/>
    <e1Detector file="e1_internal.output.xml" freq="60" friendlyPos="x" id="e1det_internal--H--S1--S1_2--S4_2--l" lane=":H_2_0" pos="3"/>
    <e1Detector file="e1_internal.output.xml" freq="60" friendlyPos="x" id="e1det_internal--H--S3--S3_0--S2_0--r" lane=":H_3_0" pos="3"/>
    <e1Detector file="e1_internal.output.xml" freq="60" friendlyPos="x" id="e1det_internal--H--S3--S3_1--S8_1--s" lane=":H_4_0" pos="3"/>
    <e1Detector file="e1_internal.output.xml" freq="60" friendlyPos="x" id="e1det_internal--H--S3--S3_2--S6_2--l" lane=":H_5_0" pos="3"/>
    <e1Detector file="e1_internal.output.xml" freq="60" friendlyPos="x" id="e1det_internal--H--S5--S5_0--S4_0--r" lane=":H_6_0" pos="3"/>
    <e1Detector file="e1_internal.output.xml" freq="60" friendlyPos="x" id="e1det_internal--H--S5--S5_1--S2_1--s" lane=":H_7_0" pos="3"/>
    <e1Detector file="e1_internal.output.xml" freq="60" friendlyPos="x" id="e1det_internal--H--S5--S5_2--S8_2--l" lane=":H_8_0" pos="3"/>
    <e1Detector file="e1_internal.output.xml" freq="60" friendlyPos="x" id="e1det_internal--H--S7--S7_0--S6_0--r" lane=":H_9_0" pos="3"/>
    <e1Detector file="e1_internal.output.xml" freq="60" friendlyPos="x" id="e1det_internal--H--S7--S7_1--S4_1--s" lane=":H_10_0" pos="3"/>
    <e1Detector file="e1_internal.output.xml" freq="60" friendlyPos="x" id="e1det_internal--H--S7--S7_2--S2_2--l" lane=":H_11_0" pos="3"/>
</additional>
